                                   MODFLOW 6
                U.S. GEOLOGICAL SURVEY MODULAR HYDROLOGIC MODEL
                          GROUNDWATER FLOW MODEL (GWF)
                            VERSION 6.2.0 10/22/2020

   MODFLOW 6 compiled Oct 22 2020 09:26:42 with IFORT compiler (ver. 19.10.2)

This software has been approved for release by the U.S. Geological 
Survey (USGS). Although the software has been subjected to rigorous 
review, the USGS reserves the right to update the software as needed 
pursuant to further analysis and review. No warranty, expressed or 
implied, is made by the USGS or the U.S. Government as to the 
functionality of the software and related material nor shall the 
fact of release constitute any such warranty. Furthermore, the 
software is released on condition that neither the USGS nor the U.S. 
Government shall be held liable for any damages resulting from its 
authorized or unauthorized use. Also refer to the USGS Water 
Resources Software User Rights Notice for complete use, copyright, 
and distribution information.


System command used to initiate simulation:
mf6

MODFLOW was compiled using uniform precision.

Real Variables
  KIND: 8
  TINY (smallest non-zero value):    2.225074-308
  HUGE (largest value):    1.797693+308
  PRECISION: 15
  BIT SIZE: 64

Integer Variables
  KIND: 4
  HUGE (largest value): 2147483647
  BIT SIZE: 32

Long Integer Variables
  KIND: 8
  HUGE (largest value): 9223372036854775807
  BIT SIZE: 64

Logical Variables
  KIND: 4
  BIT SIZE: 32
 

 OPENED tutorial01_mf6.dis
 FILE TYPE:DIS6                   UNIT 1005   STATUS:OLD                 
 FORMAT:FORMATTED              ACCESS:SEQUENTIAL          
 ACTION:READ                


 OPENED tutorial01_mf6.ic
 FILE TYPE:IC6                    UNIT 1006   STATUS:OLD                 
 FORMAT:FORMATTED              ACCESS:SEQUENTIAL          
 ACTION:READ                


 OPENED tutorial01_mf6.npf
 FILE TYPE:NPF6                   UNIT 1007   STATUS:OLD                 
 FORMAT:FORMATTED              ACCESS:SEQUENTIAL          
 ACTION:READ                


 OPENED tutorial01_mf6.rcha
 FILE TYPE:RCH6                   UNIT 1008   STATUS:OLD                 
 FORMAT:FORMATTED              ACCESS:SEQUENTIAL          
 ACTION:READ                


 OPENED tutorial01_mf6.chd
 FILE TYPE:CHD6                   UNIT 1009   STATUS:OLD                 
 FORMAT:FORMATTED              ACCESS:SEQUENTIAL          
 ACTION:READ                


 OPENED tutorial01_mf6.oc
 FILE TYPE:OC6                    UNIT 1010   STATUS:OLD                 
 FORMAT:FORMATTED              ACCESS:SEQUENTIAL          
 ACTION:READ                

 NAMEFILE OPTIONS:
    FLOWS WILL BE SAVED TO BUDGET FILE SPECIFIED IN OUTPUT CONTROL

 DIS -- STRUCTURED GRID DISCRETIZATION PACKAGE, VERSION 2 : 3/27/2014 - INPUT READ FROM UNIT 1005


 # File generated by Flopy version 3.3.2 on 02/04/2021 at 23:16:18.
 PROCESSING DISCRETIZATION OPTIONS
 END OF DISCRETIZATION OPTIONS
 MODEL LENGTH UNIT IS UNDEFINED
 PROCESSING DISCRETIZATION DIMENSIONS
    NLAY =      10
    NROW =     101
    NCOL =     101
 END OF DISCRETIZATION DIMENSIONS
 PROCESSING GRIDDATA

                     DELR =   4.000000    

                     DELC =   4.000000    

 TOP ELEVATION OF LAYER 1 =   0.000000    

   MODEL LAYER BOTTOM EL. =  -5.000000     FOR LAYER 1

   MODEL LAYER BOTTOM EL. =  -10.00000     FOR LAYER 2

   MODEL LAYER BOTTOM EL. =  -15.00000     FOR LAYER 3

   MODEL LAYER BOTTOM EL. =  -20.00000     FOR LAYER 4

   MODEL LAYER BOTTOM EL. =  -25.00000     FOR LAYER 5

   MODEL LAYER BOTTOM EL. =  -30.00000     FOR LAYER 6

   MODEL LAYER BOTTOM EL. =  -35.00000     FOR LAYER 7

   MODEL LAYER BOTTOM EL. =  -40.00000     FOR LAYER 8

   MODEL LAYER BOTTOM EL. =  -45.00000     FOR LAYER 9

   MODEL LAYER BOTTOM EL. =  -50.00000     FOR LAYER 10
 END PROCESSING GRIDDATA

 NPF -- NODE PROPERTY FLOW PACKAGE, VERSION 1, 3/30/2015 INPUT READ FROM UNIT 1007


 # File generated by Flopy version 3.3.2 on 02/04/2021 at 23:16:19.
 PROCESSING NPF OPTIONS
    CELL-BY-CELL FLOW INFORMATION WILL BE SAVED TO BINARY FILE WHENEVER ICBCFL IS NOT ZERO.
    SPECIFIC DISCHARGE WILL BE CALCULATED AT CELL CENTERS AND WRITTEN TO DATA-SPDIS IN BUDGET FILE WHEN REQUESTED.
 END OF NPF OPTIONS

 RCH   -- RCH PACKAGE, VERSION 8, 2/22/2014 INPUT READ FROM UNIT 1008
 # File generated by Flopy version 3.3.2 on 02/04/2021 at 23:16:19.

 PROCESSING RCH OPTIONS
    RECHARGE INPUT WILL BE READ AS ARRAY(S).
 END OF RCH OPTIONS

 CHD   -- CHD PACKAGE, VERSION 8, 2/22/2014 INPUT READ FROM UNIT 1009
 # File generated by Flopy version 3.3.2 on 02/04/2021 at 23:16:19.

 PROCESSING CHD OPTIONS
    FLOWS WILL BE SAVED TO BUDGET FILE SPECIFIED IN OUTPUT CONTROL
 END OF CHD OPTIONS

 PROCESSING CHD DIMENSIONS
    MAXBOUND =    4002
 END OF CHD DIMENSIONS

 IC -- INITIAL CONDITIONS PACKAGE, VERSION 8, 3/28/2015 INPUT READ FROM UNIT 1006
 # File generated by Flopy version 3.3.2 on 02/04/2021 at 23:16:18.
 PROCESSING GRIDDATA
 END PROCESSING GRIDDATA
 PROCESSING GRIDDATA

                ICELLTYPE = 1

                        K =   1.000000    
 K33 not provided.  Assuming K33 = K.
 K22 not provided.  Assuming K22 = K.
 END PROCESSING GRIDDATA
    BINARY GRID INFORMATION WILL BE WRITTEN TO:
      UNIT NUMBER: 1012
      FILE NAME: C:\taller\TallerDiplo1\Workspace\tutorial01_mf6.dis.grb

 OPENED C:\taller\TallerDiplo1\Workspace\tutorial01_mf6.dis.grb
 FILE TYPE:DATA(BINARY)   UNIT 1012   STATUS:REPLACE             
 FORMAT:UNFORMATTED            ACCESS:STREAM              
 ACTION:READWRITE           

      THE LAST TIME STEP WILL BE PRINTED
      THE LAST TIME STEP WILL BE PRINTED
 # File generated by Flopy version 3.3.2 on 02/04/2021 at 23:16:20.

 PROCESSING OC OPTIONS

    BUDGET INFORMATION WILL BE WRITTEN TO:
      UNIT NUMBER: 1013
      FILE NAME: tutorial01_mf6.cbb

 OPENED tutorial01_mf6.cbb
 FILE TYPE:DATA(BINARY)   UNIT 1013   STATUS:REPLACE             
 FORMAT:UNFORMATTED            ACCESS:STREAM              
 ACTION:READWRITE           

    HEAD INFORMATION WILL BE WRITTEN TO:
      UNIT NUMBER: 1014
      FILE NAME: tutorial01_mf6.hds

 OPENED tutorial01_mf6.hds
 FILE TYPE:DATA(BINARY)   UNIT 1014   STATUS:REPLACE             
 FORMAT:UNFORMATTED            ACCESS:STREAM              
 ACTION:READWRITE           

 END OF OC OPTIONS

start timestep kper="1" kstp="1" mode="normal"


 BEGIN READING OUTPUT CONTROL FOR STRESS PERIOD 1
      ALL TIME STEPS WILL BE SAVED
      ALL TIME STEPS WILL BE SAVED
      THE LAST TIME STEP WILL BE PRINTED

 END READING OUTPUT CONTROL FOR STRESS PERIOD 1

                 RECHARGE =  0.2000000E-02
 UBDSV1 SAVING     FLOW-JA-FACE ON UNIT   1013 AT TIME STEP      1, STRESS PERIOD      1
 UBDSV06 SAVING       DATA-SPDIS IN MODEL TUTORIAL01_MF6   PACKAGE NPF             CONNECTED TO MODEL TUTORIAL01_MF6   PACKAGE NPF              ON UNIT   1013 AT TIME STEP      1, STRESS PERIOD      1
 UBDSV06 SAVING              RCH IN MODEL TUTORIAL01_MF6   PACKAGE TUTORIAL01_MF6  CONNECTED TO MODEL TUTORIAL01_MF6   PACKAGE RCHA             ON UNIT   1013 AT TIME STEP      1, STRESS PERIOD      1
 UBDSV06 SAVING              CHD IN MODEL TUTORIAL01_MF6   PACKAGE TUTORIAL01_MF6  CONNECTED TO MODEL TUTORIAL01_MF6   PACKAGE CHD_0            ON UNIT   1013 AT TIME STEP      1, STRESS PERIOD      1
1
  HEAD IN LAYER   1 AT END OF TIME STEP   1 IN STRESS PERIOD    1
  ---------------------------------------------------------------------------

            1           2           3           4           5           6           7           8           9          10
           11          12          13          14          15          16          17          18          19          20
           21          22          23          24          25          26          27          28          29          30
           31          32          33          34          35          36          37          38          39          40
           41          42          43          44          45          46          47          48          49          50
           51          52          53          54          55          56          57          58          59          60
           61          62          63          64          65          66          67          68          69          70
           71          72          73          74          75          76          77          78          79          80
           81          82          83          84          85          86          87          88          89          90
           91          92          93          94          95          96          97          98          99         100
          101
 ........................................................................................................................
   1    100.0       100.0       100.0       100.0       100.0       100.0       100.0       100.0       100.0       100.0    
        100.0       100.0       100.0       100.0       100.0       100.0       100.0       100.0       100.0       100.0    
        100.0       100.0       100.0       100.0       100.0       100.0       100.0       100.0       100.0       100.0    
        100.0       100.0       100.0       100.0       100.0       100.0       100.0       100.0       100.0       100.0    
        100.0       100.0       100.0       100.0       100.0       100.0       100.0       100.0       100.0       100.0    
        100.0       100.0       100.0       100.0       100.0       100.0       100.0       100.0       100.0       100.0    
        100.0       100.0       100.0       100.0       100.0       100.0       100.0       100.0       100.0       100.0    
        100.0       100.0       100.0       100.0       100.0       100.0       100.0       100.0       100.0       100.0    
        100.0       100.0       100.0       100.0       100.0       100.0       100.0       100.0       100.0       100.0    
        100.0       100.0       100.0       100.0       100.0       100.0       100.0       100.0       100.0       100.0    
        100.0    
   2    100.0       100.0       100.0       100.0       100.0       100.0       100.0       100.0       100.0       100.0    
        100.0       100.0       100.0       100.0       100.0      100.00      100.00      100.00      100.00      100.00    
       100.00      100.00      100.00      100.00      100.00      100.00      100.00      100.00      100.00      100.00    
       100.00      100.00      100.00      100.00      100.00       100.0       100.0       100.0       100.0       100.0    
        100.0       100.0       100.0       100.0       100.0       100.0       100.0       100.0       100.0       100.0    
        100.0       100.0       100.0       100.0       100.0       100.0       100.0       100.0       100.0       100.0    
        100.0       100.0       100.0       100.0       100.0       100.0       100.0       100.0       100.0       100.0    
        100.0       100.0       100.0       100.0       100.0       100.0       100.0       100.0       100.0       100.0    
        100.0       100.0       100.0       100.0       100.0       100.0       100.0       100.0       100.0       100.0    
        100.0       100.0       100.0       100.0       100.0       100.0       100.0       100.0       100.0       100.0    
        100.0    
   3    100.0       100.0       100.0       100.0       100.0       100.0       100.0       100.0       100.0       100.0    
        100.0       100.0       100.0      100.00      100.00      100.00       99.99       99.99       99.99       99.99    
        99.99       99.99       99.99       99.99       99.99       99.99       99.99       99.99       99.99       99.99    
        99.99       99.99       99.99       99.99      100.00      100.00      100.00       100.0       100.0       100.0    
        100.0       100.0       100.0       100.0       100.0       100.0       100.0       100.0       100.0       100.0    
        100.0       100.0       100.0       100.0       100.0       100.0       100.0       100.0       100.0       100.0    
        100.0       100.0       100.0       100.0       100.0       100.0       100.0       100.0       100.0       100.0    
        100.0       100.0       100.0       100.0       100.0       100.0       100.0       100.0       100.0       100.0    
        100.0       100.0       100.0       100.0       100.0       100.0       100.0       100.0       100.0       100.0    
        100.0       100.0       100.0       100.0       100.0       100.0       100.0       100.0       100.0       100.0    
        100.0    
   4    100.0       100.0       100.0       100.0       100.0       100.0       100.0       100.0       100.0       100.0    
        100.0      100.00      100.00       99.99       99.99       99.99       99.99       99.99       99.98       99.98    
        99.98       99.98       99.98       99.98       99.98       99.98       99.98       99.98       99.98       99.98    
        99.98       99.98       99.98       99.99       99.99       99.99       99.99      100.00      100.00       100.0    
        100.0       100.0       100.0       100.0       100.0       100.0       100.0       100.0       100.0       100.0    
        100.0       100.0       100.0       100.0       100.0       100.0       100.0       100.0       100.0       100.0    
        100.0       100.0       100.0       100.0       100.0       100.0       100.0       100.0       100.0       100.0    
        100.0       100.0       100.0       100.0       100.0       100.0       100.0       100.0       100.0       100.0    
        100.0       100.0       100.0       100.0       100.0       100.0       100.0       100.0       100.0       100.0    
        100.0       100.0       100.0       100.0       100.0       100.0       100.0       100.0       100.0       100.0    
        100.0    
   5    100.0       100.0       100.0       100.0       100.0       100.0       100.0       100.0       100.0       100.0    
       100.00       99.99       99.99       99.99       99.98       99.98       99.98       99.98       99.97       99.97    
        99.97       99.97       99.97       99.96       99.96       99.96       99.96       99.96       99.97       99.97    
        99.97       99.97       99.97       99.98       99.98       99.98       99.99       99.99      100.00      100.00    
        100.0       100.0       100.0       100.0       100.0       100.0       100.0       100.0       100.0       100.0    
        100.0       100.0       100.0       100.0       100.0       100.0       100.0       100.0       100.1       100.1    
        100.1       100.1       100.1       100.1       100.1       100.1       100.1       100.1       100.1       100.1    
        100.1       100.1       100.1       100.1       100.1       100.1       100.1       100.1       100.1       100.1    
        100.1       100.1       100.1       100.1       100.1       100.1       100.1       100.1       100.1       100.1    
        100.0       100.0       100.0       100.0       100.0       100.0       100.0       100.0       100.0       100.0    
        100.0    
   6    100.0       100.0       100.0       100.0       100.0       100.0       100.0       100.0      100.00      100.00    
        99.99       99.99       99.98       99.98       99.98       99.97       99.97       99.96       99.96       99.96    
        99.95       99.95       99.95       99.95       99.95       99.95       99.95       99.95       99.95       99.95    
        99.96       99.96       99.96       99.97       99.97       99.98       99.98       99.98       99.99       99.99    
       100.00       100.0       100.0       100.0       100.0       100.0       100.0       100.0       100.0       100.0    
        100.0       100.0       100.0       100.0       100.0       100.1       100.1       100.1       100.1       100.1    
        100.1       100.1       100.1       100.1       100.1       100.1       100.1       100.1       100.1       100.1    
        100.1       100.1       100.1       100.1       100.1       100.1       100.1       100.1       100.1       100.1    
        100.1       100.1       100.1       100.1       100.1       100.1       100.1       100.1       100.1       100.1    
        100.1       100.1       100.1       100.0       100.0       100.0       100.0       100.0       100.0       100.0    
        100.0    
   7    100.0       100.0       100.0       100.0       100.0       100.0       100.0      100.00      100.00       99.99    
        99.99       99.98       99.98       99.97       99.97       99.96       99.96       99.95       99.95       99.94    
        99.94       99.94       99.93       99.93       99.93       99.93       99.93       99.93       99.94       99.94    
        99.94       99.95       99.95       99.95       99.96       99.96       99.97       99.98       99.98       99.99    
        99.99      100.00       100.0       100.0       100.0       100.0       100.0       100.0       100.0       100.0    
        100.0       100.0       100.0       100.1       100.1       100.1       100.1       100.1       100.1       100.1    
        100.1       100.1       100.1       100.1       100.1       100.1       100.1       100.1       100.1       100.1    
        100.1       100.1       100.1       100.1       100.1       100.1       100.1       100.1       100.1       100.1    
        100.1       100.1       100.1       100.1       100.1       100.1       100.1       100.1       100.1       100.1    
        100.1       100.1       100.1       100.1       100.0       100.0       100.0       100.0       100.0       100.0    
        100.0    
   8    100.0       100.0       100.0       100.0       100.0       100.0      100.00      100.00       99.99       99.99    
        99.98       99.97       99.97       99.96       99.96       99.95       99.94       99.94       99.93       99.93    
        99.92       99.92       99.92       99.91       99.91       99.91       99.91       99.91       99.92       99.92    
        99.92       99.93       99.93       99.94       99.95       99.95       99.96       99.97       99.97       99.98    
        99.99       99.99      100.00       100.0       100.0       100.0       100.0       100.0       100.0       100.0    
        100.0       100.0       100.1       100.1       100.1       100.1       100.1       100.1       100.1       100.1    
        100.1       100.1       100.1       100.1       100.1       100.1       100.1       100.1       100.1       100.1    
        100.1       100.1       100.1       100.1       100.1       100.1       100.1       100.1       100.1       100.1    
        100.1       100.1       100.1       100.1       100.1       100.1       100.1       100.1       100.1       100.1    
        100.1       100.1       100.1       100.1       100.1       100.0       100.0       100.0       100.0       100.0    
        100.0    
   9    100.0       100.0       100.0       100.0       100.0       100.0      100.00       99.99       99.99       99.98    
        99.97       99.97       99.96       99.95       99.94       99.94       99.93       99.92       99.92       99.91    
        99.90       99.90       99.90       99.89       99.89       99.89       99.89       99.89       99.90       99.90    
        99.91       99.91       99.92       99.93       99.93       99.94       99.95       99.96       99.96       99.97    
        99.98       99.99      100.00       100.0       100.0       100.0       100.0       100.0       100.0       100.0    
        100.0       100.0       100.1       100.1       100.1       100.1       100.1       100.1       100.1       100.1    
        100.1       100.1       100.1       100.1       100.1       100.1       100.1       100.1       100.1       100.1    
        100.1       100.1       100.1       100.1       100.1       100.1       100.1       100.1       100.1       100.1    
        100.1       100.1       100.1       100.1       100.1       100.1       100.1       100.1       100.1       100.1    
        100.1       100.1       100.1       100.1       100.1       100.1       100.0       100.0       100.0       100.0    
        100.0    
  10    100.0       100.0       100.0       100.0       100.0      100.00       99.99       99.99       99.98       99.97    
        99.96       99.96       99.95       99.94       99.93       99.92       99.91       99.90       99.90       99.89    
        99.88       99.88       99.87       99.87       99.87       99.87       99.87       99.87       99.87       99.88    
        99.89       99.89       99.90       99.91       99.92       99.93       99.94       99.94       99.95       99.96    
        99.97       99.98       99.99      100.00       100.0       100.0       100.0       100.0       100.0       100.0    
        100.0       100.1       100.1       100.1       100.1       100.1       100.1       100.1       100.1       100.1    
        100.1       100.1       100.1       100.1       100.1       100.1       100.1       100.1       100.1       100.1    
        100.1       100.1       100.1       100.1       100.1       100.1       100.1       100.1       100.1       100.1    
        100.1       100.1       100.1       100.1       100.1       100.1       100.1       100.1       100.1       100.1    
        100.1       100.1       100.1       100.1       100.1       100.1       100.0       100.0       100.0       100.0    
        100.0    
  11    100.0       100.0       100.0       100.0      100.00       99.99       99.99       99.98       99.97       99.96    
        99.96       99.95       99.94       99.93       99.92       99.91       99.90       99.89       99.88       99.87    
        99.86       99.85       99.85       99.84       99.84       99.84       99.84       99.84       99.85       99.85    
        99.86       99.87       99.88       99.89       99.90       99.91       99.92       99.93       99.94       99.95    
        99.96       99.97       99.98       99.99       100.0       100.0       100.0       100.0       100.0       100.0    
        100.0       100.1       100.1       100.1       100.1       100.1       100.1       100.1       100.1       100.1    
        100.1       100.1       100.1       100.1       100.1       100.1       100.1       100.1       100.1       100.1    
        100.1       100.1       100.1       100.1       100.1       100.1       100.1       100.1       100.1       100.1    
        100.1       100.1       100.1       100.1       100.1       100.1       100.1       100.1       100.1       100.1    
        100.1       100.1       100.1       100.1       100.1       100.1       100.0       100.0       100.0       100.0    
        100.0    
  12    100.0       100.0       100.0      100.00       99.99       99.99       99.98       99.97       99.97       99.96    
        99.95       99.94       99.92       99.91       99.90       99.89       99.88       99.87       99.85       99.84    
        99.83       99.83       99.82       99.81       99.81       99.81       99.81       99.82       99.82       99.83    
        99.84       99.85       99.86       99.87       99.88       99.89       99.91       99.92       99.93       99.94    
        99.95       99.97       99.98       99.99      100.00       100.0       100.0       100.0       100.0       100.0    
        100.0       100.1       100.1       100.1       100.1       100.1       100.1       100.1       100.1       100.1    
        100.1       100.1       100.1       100.1       100.1       100.1       100.1       100.1       100.1       100.1    
        100.1       100.1       100.1       100.1       100.1       100.1       100.1       100.1       100.1       100.1    
        100.1       100.1       100.1       100.1       100.1       100.1       100.1       100.1       100.1       100.1    
        100.1       100.1       100.1       100.1       100.1       100.1       100.1       100.0       100.0       100.0    
        100.0    
  13    100.0       100.0       100.0      100.00       99.99       99.99       99.98       99.97       99.96       99.95    
        99.94       99.92       99.91       99.90       99.89       99.87       99.86       99.84       99.83       99.82    
        99.81       99.80       99.79       99.78       99.78       99.78       99.78       99.78       99.79       99.80    
        99.81       99.82       99.83       99.85       99.86       99.88       99.89       99.90       99.92       99.93    
        99.95       99.96       99.97       99.98       99.99       100.0       100.0       100.0       100.0       100.0    
        100.0       100.1       100.1       100.1       100.1       100.1       100.1       100.1       100.1       100.1    
        100.1       100.1       100.1       100.1       100.1       100.1       100.1       100.1       100.1       100.1    
        100.1       100.1       100.1       100.1       100.1       100.1       100.1       100.1       100.1       100.1    
        100.1       100.1       100.1       100.1       100.1       100.1       100.1       100.1       100.1       100.1    
        100.1       100.1       100.1       100.1       100.1       100.1       100.1       100.0       100.0       100.0    
        100.0    
  14    100.0       100.0      100.00       99.99       99.99       99.98       99.97       99.96       99.95       99.94    
        99.93       99.91       99.90       99.88       99.87       99.85       99.84       99.82       99.80       99.79    
        99.78       99.76       99.75       99.74       99.74       99.74       99.74       99.75       99.75       99.76    
        99.78       99.79       99.81       99.82       99.84       99.86       99.87       99.89       99.91       99.92    
        99.94       99.95       99.96       99.97       99.99      100.00       100.0       100.0       100.0       100.0    
        100.0       100.1       100.1       100.1       100.1       100.1       100.1       100.1       100.1       100.1    
        100.1       100.1       100.1       100.1       100.1       100.1       100.1       100.1       100.1       100.1    
        100.1       100.1       100.1       100.1       100.1       100.1       100.1       100.1       100.1       100.1    
        100.1       100.1       100.1       100.1       100.1       100.1       100.1       100.1       100.1       100.1    
        100.1       100.1       100.1       100.1       100.1       100.1       100.1       100.0       100.0       100.0    
        100.0    
  15    100.0       100.0      100.00       99.99       99.99       99.98       99.97       99.96       99.94       99.93    
        99.92       99.90       99.89       99.87       99.85       99.83       99.81       99.79       99.78       99.76    
        99.74       99.72       99.71       99.70       99.69       99.69       99.70       99.70       99.71       99.73    
        99.74       99.76       99.78       99.80       99.82       99.84       99.86       99.87       99.89       99.91    
        99.92       99.94       99.95       99.97       99.98       99.99       100.0       100.0       100.0       100.0    
        100.0       100.1       100.1       100.1       100.1       100.1       100.1       100.1       100.1       100.1    
        100.1       100.1       100.1       100.1       100.1       100.1       100.1       100.1       100.1       100.1    
        100.1       100.1       100.1       100.1       100.1       100.1       100.1       100.1       100.1       100.1    
        100.1       100.1       100.1       100.1       100.1       100.1       100.1       100.1       100.1       100.1    
        100.1       100.1       100.1       100.1       100.1       100.1       100.1       100.0       100.0       100.0    
        100.0    
  16    100.0      100.00      100.00       99.99       99.98       99.97       99.96       99.95       99.94       99.92    
        99.91       99.89       99.87       99.85       99.83       99.81       99.79       99.77       99.74       99.72    
        99.70       99.68       99.66       99.65       99.64       99.64       99.64       99.65       99.66       99.68    
        99.70       99.72       99.75       99.77       99.79       99.82       99.84       99.86       99.88       99.90    
        99.91       99.93       99.95       99.96       99.98       99.99       100.0       100.0       100.0       100.0    
        100.0       100.1       100.1       100.1       100.1       100.1       100.1       100.1       100.1       100.1    
        100.1       100.1       100.1       100.1       100.1       100.1       100.1       100.1       100.1       100.1    
        100.1       100.1       100.1       100.1       100.1       100.1       100.1       100.1       100.1       100.1    
        100.1       100.1       100.1       100.1       100.1       100.1       100.1       100.1       100.1       100.1    
        100.1       100.1       100.1       100.1       100.1       100.1       100.1       100.0       100.0       100.0    
        100.0    
  17    100.0      100.00       99.99       99.99       99.98       99.97       99.96       99.94       99.93       99.91    
        99.90       99.88       99.86       99.84       99.81       99.79       99.76       99.74       99.71       99.68    
        99.66       99.63       99.61       99.59       99.58       99.58       99.58       99.59       99.61       99.63    
        99.66       99.68       99.71       99.74       99.77       99.79       99.82       99.84       99.86       99.88    
        99.90       99.92       99.94       99.96       99.97       99.98      100.00       100.0       100.0       100.0    
        100.0       100.1       100.1       100.1       100.1       100.1       100.1       100.1       100.1       100.1    
        100.1       100.1       100.1       100.1       100.1       100.1       100.1       100.1       100.1       100.1    
        100.1       100.1       100.1       100.1       100.1       100.1       100.1       100.1       100.1       100.1    
        100.1       100.1       100.1       100.1       100.1       100.1       100.1       100.1       100.1       100.1    
        100.1       100.1       100.1       100.1       100.1       100.1       100.1       100.0       100.0       100.0    
        100.0    
  18    100.0      100.00       99.99       99.99       99.98       99.96       99.95       99.94       99.92       99.90    
        99.89       99.87       99.84       99.82       99.79       99.77       99.74       99.71       99.67       99.64    
        99.61       99.57       99.54       99.52       99.50       99.50       99.50       99.52       99.54       99.57    
        99.61       99.64       99.68       99.71       99.74       99.77       99.80       99.82       99.85       99.87    
        99.89       99.91       99.93       99.95       99.96       99.98       99.99       100.0       100.0       100.0    
        100.0       100.1       100.1       100.1       100.1       100.1       100.1       100.1       100.1       100.1    
        100.1       100.1       100.1       100.1       100.1       100.1       100.1       100.1       100.1       100.1    
        100.1       100.1       100.2       100.2       100.2       100.2       100.2       100.1       100.1       100.1    
        100.1       100.1       100.1       100.1       100.1       100.1       100.1       100.1       100.1       100.1    
        100.1       100.1       100.1       100.1       100.1       100.1       100.1       100.0       100.0       100.0    
        100.0    
  19    100.0      100.00       99.99       99.98       99.97       99.96       99.95       99.93       99.91       99.90    
        99.88       99.85       99.83       99.80       99.77       99.74       99.71       99.67       99.63       99.59    
        99.55       99.50       99.46       99.43       99.41       99.40       99.41       99.43       99.46       99.50    
        99.55       99.59       99.63       99.67       99.71       99.75       99.78       99.81       99.84       99.86    
        99.88       99.90       99.92       99.94       99.96       99.98       99.99       100.0       100.0       100.0    
        100.0       100.1       100.1       100.1       100.1       100.1       100.1       100.1       100.1       100.1    
        100.1       100.1       100.1       100.1       100.1       100.1       100.1       100.1       100.1       100.1    
        100.2       100.2       100.2       100.2       100.2       100.2       100.2       100.2       100.2       100.2    
        100.1       100.1       100.1       100.1       100.1       100.1       100.1       100.1       100.1       100.1    
        100.1       100.1       100.1       100.1       100.1       100.1       100.1       100.0       100.0       100.0    
        100.0    
  20    100.0      100.00       99.99       99.98       99.97       99.96       99.94       99.93       99.91       99.89    
        99.87       99.84       99.82       99.79       99.76       99.72       99.68       99.64       99.59       99.54    
        99.48       99.42       99.37       99.32       99.28       99.27       99.28       99.32       99.37       99.42    
        99.48       99.54       99.59       99.64       99.68       99.72       99.76       99.79       99.82       99.85    
        99.87       99.90       99.92       99.94       99.95       99.97       99.99       100.0       100.0       100.0    
        100.0       100.1       100.1       100.1       100.1       100.1       100.1       100.1       100.1       100.1    
        100.1       100.1       100.1       100.1       100.1       100.1       100.1       100.1       100.2       100.2    
        100.2       100.2       100.2       100.2       100.2       100.2       100.2       100.2       100.2       100.2    
        100.2       100.2       100.1       100.1       100.1       100.1       100.1       100.1       100.1       100.1    
        100.1       100.1       100.1       100.1       100.1       100.1       100.1       100.0       100.0       100.0    
        100.0    
  21    100.0      100.00       99.99       99.98       99.97       99.95       99.94       99.92       99.90       99.88    
        99.86       99.83       99.80       99.77       99.74       99.70       99.65       99.60       99.55       99.48    
        99.41       99.33       99.25       99.17       99.11       99.09       99.11       99.17       99.25       99.33    
        99.41       99.48       99.55       99.60       99.66       99.70       99.74       99.78       99.81       99.84    
        99.86       99.89       99.91       99.93       99.95       99.97       99.98      100.00       100.0       100.0    
        100.0       100.0       100.1       100.1       100.1       100.1       100.1       100.1       100.1       100.1    
        100.1       100.1       100.1       100.1       100.1       100.1       100.1       100.2       100.2       100.2    
        100.2       100.2       100.2       100.2       100.2       100.2       100.2       100.2       100.2       100.2    
        100.2       100.2       100.2       100.1       100.1       100.1       100.1       100.1       100.1       100.1    
        100.1       100.1       100.1       100.1       100.1       100.1       100.1       100.0       100.0       100.0    
        100.0    
  22    100.0      100.00       99.99       99.98       99.97       99.95       99.93       99.92       99.90       99.87    
        99.85       99.82       99.79       99.76       99.72       99.68       99.63       99.57       99.50       99.42    
        99.33       99.22       99.10       98.97       98.87       98.82       98.87       98.97       99.10       99.22    
        99.33       99.42       99.50       99.57       99.63       99.68       99.72       99.76       99.80       99.83    
        99.86       99.88       99.90       99.93       99.95       99.96       99.98      100.00       100.0       100.0    
        100.0       100.0       100.1       100.1       100.1       100.1       100.1       100.1       100.1       100.1    
        100.1       100.1       100.1       100.1       100.1       100.1       100.1       100.2       100.2       100.2    
        100.2       100.2       100.2       100.2       100.2       100.2       100.2       100.2       100.2       100.2    
        100.2       100.2       100.2       100.1       100.1       100.1       100.1       100.1       100.1       100.1    
        100.1       100.1       100.1       100.1       100.1       100.1       100.1       100.1       100.0       100.0    
        100.0    
  23    100.0      100.00       99.99       99.98       99.96       99.95       99.93       99.91       99.89       99.87    
        99.84       99.82       99.78       99.75       99.71       99.66       99.60       99.54       99.46       99.36    
        99.24       99.10       98.91       98.70       98.50       98.38       98.50       98.70       98.91       99.10    
        99.24       99.36       99.46       99.54       99.61       99.66       99.71       99.75       99.79       99.82    
        99.85       99.88       99.90       99.92       99.94       99.96       99.98       99.99       100.0       100.0    
        100.0       100.0       100.1       100.1       100.1       100.1       100.1       100.1       100.1       100.1    
        100.1       100.1       100.1       100.1       100.1       100.1       100.2       100.2       100.2       100.2    
        100.2       100.2       100.2       100.2       100.2       100.2       100.2       100.2       100.2       100.2    
        100.2       100.2       100.2       100.2       100.1       100.1       100.1       100.1       100.1       100.1    
        100.1       100.1       100.1       100.1       100.1       100.1       100.1       100.1       100.0       100.0    
        100.0    
  24    100.0      100.00       99.99       99.98       99.96       99.95       99.93       99.91       99.89       99.87    
        99.84       99.81       99.78       99.74       99.70       99.65       99.59       99.51       99.42       99.31    
        99.17       98.97       98.70       98.34       97.90       97.56       97.90       98.34       98.70       98.97    
        99.16       99.31       99.42       99.51       99.59       99.65       99.70       99.74       99.78       99.81    
        99.84       99.87       99.90       99.92       99.94       99.96       99.98       99.99       100.0       100.0    
        100.0       100.0       100.1       100.1       100.1       100.1       100.1       100.1       100.1       100.1    
        100.1       100.1       100.1       100.1       100.1       100.1       100.2       100.2       100.2       100.2    
        100.2       100.2       100.2       100.2       100.2       100.2       100.2       100.2       100.2       100.2    
        100.2       100.2       100.2       100.2       100.1       100.1       100.1       100.1       100.1       100.1    
        100.1       100.1       100.1       100.1       100.1       100.1       100.1       100.1       100.0       100.0    
        100.0    
  25    100.0       99.99       99.99       99.97       99.96       99.95       99.93       99.91       99.89       99.86    
        99.84       99.81       99.77       99.73       99.69       99.64       99.57       99.50       99.40       99.27    
        99.11       98.86       98.49       97.90       96.93       95.65       96.92       97.90       98.49       98.86    
        99.10       99.27       99.40       99.50       99.57       99.64       99.69       99.73       99.77       99.81    
        99.84       99.87       99.89       99.91       99.94       99.96       99.97       99.99       100.0       100.0    
        100.0       100.0       100.1       100.1       100.1       100.1       100.1       100.1       100.1       100.1    
        100.1       100.1       100.1       100.1       100.1       100.2       100.2       100.2       100.2       100.2    
        100.2       100.2       100.2       100.2       100.2       100.2       100.2       100.2       100.2       100.2    
        100.2       100.2       100.2       100.2       100.2       100.1       100.1       100.1       100.1       100.1    
        100.1       100.1       100.1       100.1       100.1       100.1       100.1       100.1       100.0       100.0    
        100.0    
  26    100.0       99.99       99.99       99.97       99.96       99.94       99.93       99.91       99.89       99.86    
        99.83       99.80       99.77       99.73       99.69       99.63       99.57       99.49       99.39       99.26    
        99.08       98.81       98.38       97.55       95.65       90.00       95.65       97.55       98.38       98.81    
        99.08       99.26       99.39       99.49       99.57       99.63       99.68       99.73       99.77       99.81    
        99.84       99.86       99.89       99.91       99.93       99.95       99.97       99.99       100.0       100.0    
        100.0       100.0       100.1       100.1       100.1       100.1       100.1       100.1       100.1       100.1    
        100.1       100.1       100.1       100.1       100.1       100.2       100.2       100.2       100.2       100.2    
        100.2       100.2       100.2       100.2       100.2       100.2       100.2       100.2       100.2       100.2    
        100.2       100.2       100.2       100.2       100.2       100.1       100.1       100.1       100.1       100.1    
        100.1       100.1       100.1       100.1       100.1       100.1       100.1       100.1       100.0       100.0    
        100.0    
  27    100.0       99.99       99.99       99.97       99.96       99.94       99.93       99.91       99.89       99.86    
        99.83       99.80       99.77       99.73       99.69       99.63       99.57       99.49       99.40       99.27    
        99.10       98.86       98.49       97.89       96.92       95.65       96.92       97.89       98.49       98.86    
        99.10       99.27       99.40       99.49       99.57       99.63       99.68       99.73       99.77       99.80    
        99.84       99.86       99.89       99.91       99.93       99.95       99.97       99.99       100.0       100.0    
        100.0       100.0       100.1       100.1       100.1       100.1       100.1       100.1       100.1       100.1    
        100.1       100.1       100.1       100.1       100.1       100.2       100.2       100.2       100.2       100.2    
        100.2       100.2       100.2       100.2       100.2       100.2       100.2       100.2       100.2       100.2    
        100.2       100.2       100.2       100.2       100.2       100.1       100.1       100.1       100.1       100.1    
        100.1       100.1       100.1       100.1       100.1       100.1       100.1       100.1       100.0       100.0    
        100.0    
  28    100.0       99.99       99.99       99.97       99.96       99.95       99.93       99.91       99.89       99.86    
        99.84       99.81       99.77       99.73       99.69       99.64       99.58       99.51       99.42       99.31    
        99.16       98.96       98.69       98.33       97.89       97.55       97.89       98.33       98.69       98.96    
        99.16       99.30       99.42       99.51       99.58       99.64       99.69       99.73       99.77       99.81    
        99.84       99.86       99.89       99.91       99.93       99.95       99.97       99.99       100.0       100.0    
        100.0       100.0       100.1       100.1       100.1       100.1       100.1       100.1       100.1       100.1    
        100.1       100.1       100.1       100.1       100.1       100.2       100.2       100.2       100.2       100.2    
        100.2       100.2       100.2       100.2       100.2       100.2       100.2       100.2       100.2       100.2    
        100.2       100.2       100.2       100.2       100.2       100.2       100.1       100.1       100.1       100.1    
        100.1       100.1       100.1       100.1       100.1       100.1       100.1       100.1       100.0       100.0    
        100.0    
  29    100.0       99.99       99.99       99.97       99.96       99.95       99.93       99.91       99.89       99.87    
        99.84       99.81       99.78       99.74       99.70       99.65       99.60       99.53       99.45       99.35    
        99.23       99.09       98.90       98.69       98.48       98.37       98.48       98.69       98.90       99.08    
        99.23       99.35       99.45       99.53       99.59       99.65       99.70       99.74       99.78       99.81    
        99.84       99.86       99.89       99.91       99.93       99.95       99.97       99.99       100.0       100.0    
        100.0       100.0       100.1       100.1       100.1       100.1       100.1       100.1       100.1       100.1    
        100.1       100.1       100.1       100.1       100.1       100.2       100.2       100.2       100.2       100.2    
        100.2       100.2       100.2       100.2       100.2       100.2       100.2       100.2       100.2       100.2    
        100.2       100.2       100.2       100.2       100.2       100.2       100.1       100.1       100.1       100.1    
        100.1       100.1       100.1       100.1       100.1       100.1       100.1       100.1       100.0       100.0    
        100.0    
  30    100.0      100.00       99.99       99.98       99.96       99.95       99.93       99.91       99.89       99.87    
        99.84       99.82       99.78       99.75       99.71       99.67       99.62       99.56       99.49       99.41    
        99.31       99.20       99.08       98.96       98.85       98.80       98.85       98.96       99.08       99.20    
        99.31       99.41       99.49       99.55       99.61       99.66       99.71       99.75       99.78       99.81    
        99.84       99.87       99.89       99.91       99.93       99.95       99.97       99.99       100.0       100.0    
        100.0       100.0       100.1       100.1       100.1       100.1       100.1       100.1       100.1       100.1    
        100.1       100.1       100.1       100.1       100.1       100.2       100.2       100.2       100.2       100.2    
        100.2       100.2       100.2       100.2       100.2       100.2       100.2       100.2       100.2       100.2    
        100.2       100.2       100.2       100.2       100.2       100.2       100.1       100.1       100.1       100.1    
        100.1       100.1       100.1       100.1       100.1       100.1       100.1       100.1       100.0       100.0    
        100.0    
  31    100.0      100.00       99.99       99.98       99.96       99.95       99.93       99.92       99.90       99.87    
        99.85       99.82       99.79       99.76       99.73       99.69       99.64       99.59       99.53       99.46    
        99.39       99.31       99.23       99.15       99.09       99.07       99.09       99.15       99.23       99.31    
        99.39       99.46       99.53       99.58       99.63       99.68       99.72       99.76       99.79       99.82    
        99.85       99.87       99.89       99.92       99.93       99.95       99.97       99.99       100.0       100.0    
        100.0       100.0       100.1       100.1       100.1       100.1       100.1       100.1       100.1       100.1    
        100.1       100.1       100.1       100.1       100.1       100.2       100.2       100.2       100.2       100.2    
        100.2       100.2       100.2       100.2       100.2       100.2       100.2       100.2       100.2       100.2    
        100.2       100.2       100.2       100.2       100.2       100.2       100.1       100.1       100.1       100.1    
        100.1       100.1       100.1       100.1       100.1       100.1       100.1       100.1       100.0       100.0    
        100.0    
  32    100.0      100.00       99.99       99.98       99.97       99.95       99.94       99.92       99.90       99.88    
        99.86       99.83       99.80       99.77       99.74       99.70       99.66       99.62       99.57       99.52    
        99.46       99.40       99.34       99.29       99.26       99.24       99.26       99.29       99.34       99.40    
        99.46       99.51       99.57       99.61       99.66       99.70       99.73       99.77       99.80       99.83    
        99.85       99.88       99.90       99.92       99.94       99.95       99.97       99.99       100.0       100.0    
        100.0       100.0       100.1       100.1       100.1       100.1       100.1       100.1       100.1       100.1    
        100.1       100.1       100.1       100.1       100.1       100.2       100.2       100.2       100.2       100.2    
        100.2       100.2       100.2       100.2       100.2       100.2       100.2       100.2       100.2       100.2    
        100.2       100.2       100.2       100.2       100.2       100.2       100.1       100.1       100.1       100.1    
        100.1       100.1       100.1       100.1       100.1       100.1       100.1       100.1       100.0       100.0    
        100.0    
  33    100.0      100.00       99.99       99.98       99.97       99.95       99.94       99.92       99.90       99.89    
        99.86       99.84       99.81       99.79       99.76       99.72       99.69       99.65       99.61       99.57    
        99.52       99.48       99.44       99.40       99.38       99.37       99.38       99.40       99.43       99.48    
        99.52       99.56       99.61       99.65       99.68       99.72       99.75       99.78       99.81       99.83    
        99.86       99.88       99.90       99.92       99.94       99.96       99.97       99.99       100.0       100.0    
        100.0       100.0       100.1       100.1       100.1       100.1       100.1       100.1       100.1       100.1    
        100.1       100.1       100.1       100.1       100.1       100.2       100.2       100.2       100.2       100.2    
        100.2       100.2       100.2       100.2       100.2       100.2       100.2       100.2       100.2       100.2    
        100.2       100.2       100.2       100.2       100.2       100.2       100.1       100.1       100.1       100.1    
        100.1       100.1       100.1       100.1       100.1       100.1       100.1       100.1       100.0       100.0    
        100.0    
  34    100.0      100.00       99.99       99.98       99.97       99.96       99.94       99.93       99.91       99.89    
        99.87       99.85       99.83       99.80       99.77       99.75       99.71       99.68       99.65       99.61    
        99.58       99.54       99.51       99.49       99.47       99.47       99.47       99.49       99.51       99.54    
        99.57       99.61       99.64       99.67       99.71       99.74       99.77       99.79       99.82       99.84    
        99.86       99.89       99.91       99.92       99.94       99.96       99.97       99.99       100.0       100.0    
        100.0       100.0       100.1       100.1       100.1       100.1       100.1       100.1       100.1       100.1    
        100.1       100.1       100.1       100.1       100.1       100.2       100.2       100.2       100.2       100.2    
        100.2       100.2       100.2       100.2       100.2       100.2       100.2       100.2       100.2       100.2    
        100.2       100.2       100.2       100.2       100.2       100.2       100.1       100.1       100.1       100.1    
        100.1       100.1       100.1       100.1       100.1       100.1       100.1       100.1       100.0       100.0    
        100.0    
  35    100.0      100.00       99.99       99.98       99.97       99.96       99.95       99.93       99.92       99.90    
        99.88       99.86       99.84       99.82       99.79       99.77       99.74       99.71       99.68       99.65    
        99.63       99.60       99.58       99.56       99.54       99.54       99.54       99.55       99.57       99.59    
        99.62       99.65       99.67       99.70       99.73       99.76       99.78       99.81       99.83       99.85    
        99.87       99.89       99.91       99.93       99.94       99.96       99.98       99.99       100.0       100.0    
        100.0       100.0       100.1       100.1       100.1       100.1       100.1       100.1       100.1       100.1    
        100.1       100.1       100.1       100.1       100.1       100.1       100.2       100.2       100.2       100.2    
        100.2       100.2       100.2       100.2       100.2       100.2       100.2       100.2       100.2       100.2    
        100.2       100.2       100.2       100.2       100.2       100.2       100.1       100.1       100.1       100.1    
        100.1       100.1       100.1       100.1       100.1       100.1       100.1       100.1       100.0       100.0    
        100.0    
  36    100.0      100.00       99.99       99.98       99.97       99.96       99.95       99.94       99.92       99.91    
        99.89       99.87       99.85       99.83       99.81       99.79       99.76       99.74       99.71       99.69    
        99.67       99.65       99.63       99.61       99.60       99.60       99.60       99.61       99.62       99.64    
        99.66       99.68       99.70       99.73       99.75       99.77       99.80       99.82       99.84       99.86    
        99.88       99.90       99.91       99.93       99.95       99.96       99.98       99.99       100.0       100.0    
        100.0       100.0       100.1       100.1       100.1       100.1       100.1       100.1       100.1       100.1    
        100.1       100.1       100.1       100.1       100.1       100.1       100.2       100.2       100.2       100.2    
        100.2       100.2       100.2       100.2       100.2       100.2       100.2       100.2       100.2       100.2    
        100.2       100.2       100.2       100.2       100.2       100.2       100.1       100.1       100.1       100.1    
        100.1       100.1       100.1       100.1       100.1       100.1       100.1       100.1       100.0       100.0    
        100.0    
  37    100.0      100.00       99.99       99.99       99.98       99.97       99.96       99.94       99.93       99.91    
        99.90       99.88       99.86       99.84       99.82       99.80       99.78       99.76       99.74       99.72    
        99.70       99.69       99.67       99.66       99.65       99.65       99.65       99.66       99.67       99.68    
        99.70       99.71       99.73       99.75       99.77       99.79       99.81       99.83       99.85       99.87    
        99.88       99.90       99.92       99.93       99.95       99.96       99.98       99.99       100.0       100.0    
        100.0       100.0       100.0       100.1       100.1       100.1       100.1       100.1       100.1       100.1    
        100.1       100.1       100.1       100.1       100.1       100.1       100.2       100.2       100.2       100.2    
        100.2       100.2       100.2       100.2       100.2       100.2       100.2       100.2       100.2       100.2    
        100.2       100.2       100.2       100.2       100.2       100.2       100.1       100.1       100.1       100.1    
        100.1       100.1       100.1       100.1       100.1       100.1       100.1       100.1       100.0       100.0    
        100.0    
  38    100.0      100.00      100.00       99.99       99.98       99.97       99.96       99.95       99.93       99.92    
        99.91       99.89       99.87       99.86       99.84       99.82       99.80       99.79       99.77       99.75    
        99.73       99.72       99.71       99.70       99.69       99.69       99.69       99.70       99.70       99.71    
        99.73       99.74       99.76       99.77       99.79       99.81       99.82       99.84       99.86       99.88    
        99.89       99.91       99.92       99.94       99.95       99.97       99.98       99.99       100.0       100.0    
        100.0       100.0       100.0       100.1       100.1       100.1       100.1       100.1       100.1       100.1    
        100.1       100.1       100.1       100.1       100.1       100.1       100.1       100.2       100.2       100.2    
        100.2       100.2       100.2       100.2       100.2       100.2       100.2       100.2       100.2       100.2    
        100.2       100.2       100.2       100.2       100.2       100.2       100.1       100.1       100.1       100.1    
        100.1       100.1       100.1       100.1       100.1       100.1       100.1       100.1       100.0       100.0    
        100.0    
  39    100.0       100.0      100.00       99.99       99.98       99.97       99.96       99.95       99.94       99.93    
        99.91       99.90       99.89       99.87       99.85       99.84       99.82       99.81       99.79       99.78    
        99.76       99.75       99.74       99.73       99.73       99.72       99.72       99.73       99.73       99.74    
        99.75       99.76       99.78       99.79       99.81       99.82       99.84       99.85       99.87       99.88    
        99.90       99.91       99.93       99.94       99.95       99.97       99.98       99.99       100.0       100.0    
        100.0       100.0       100.0       100.1       100.1       100.1       100.1       100.1       100.1       100.1    
        100.1       100.1       100.1       100.1       100.1       100.1       100.1       100.2       100.2       100.2    
        100.2       100.2       100.2       100.2       100.2       100.2       100.2       100.2       100.2       100.2    
        100.2       100.2       100.2       100.2       100.2       100.2       100.1       100.1       100.1       100.1    
        100.1       100.1       100.1       100.1       100.1       100.1       100.1       100.1       100.0       100.0    
        100.0    
  40    100.0       100.0      100.00       99.99       99.99       99.98       99.97       99.96       99.95       99.94    
        99.92       99.91       99.90       99.88       99.87       99.85       99.84       99.83       99.81       99.80    
        99.79       99.78       99.77       99.76       99.76       99.75       99.75       99.76       99.76       99.77    
        99.78       99.79       99.80       99.81       99.82       99.83       99.85       99.86       99.88       99.89    
        99.90       99.92       99.93       99.94       99.96       99.97       99.98       99.99       100.0       100.0    
        100.0       100.0       100.0       100.1       100.1       100.1       100.1       100.1       100.1       100.1    
        100.1       100.1       100.1       100.1       100.1       100.1       100.1       100.1       100.2       100.2    
        100.2       100.2       100.2       100.2       100.2       100.2       100.2       100.2       100.2       100.2    
        100.2       100.2       100.2       100.2       100.2       100.2       100.1       100.1       100.1       100.1    
        100.1       100.1       100.1       100.1       100.1       100.1       100.1       100.1       100.0       100.0    
        100.0    
  41    100.0       100.0      100.00       99.99       99.99       99.98       99.97       99.96       99.95       99.94    
        99.93       99.92       99.91       99.89       99.88       99.87       99.86       99.84       99.83       99.82    
        99.81       99.80       99.79       99.79       99.78       99.78       99.78       99.78       99.78       99.79    
        99.80       99.80       99.81       99.82       99.83       99.85       99.86       99.87       99.88       99.90    
        99.91       99.92       99.93       99.94       99.96       99.97       99.98       99.99       100.0       100.0    
        100.0       100.0       100.0       100.1       100.1       100.1       100.1       100.1       100.1       100.1    
        100.1       100.1       100.1       100.1       100.1       100.1       100.1       100.1       100.2       100.2    
        100.2       100.2       100.2       100.2       100.2       100.2       100.2       100.2       100.2       100.2    
        100.2       100.2       100.2       100.2       100.2       100.2       100.1       100.1       100.1       100.1    
        100.1       100.1       100.1       100.1       100.1       100.1       100.1       100.1       100.0       100.0    
        100.0    
  42    100.0       100.0       100.0      100.00       99.99       99.98       99.98       99.97       99.96       99.95    
        99.94       99.93       99.92       99.90       99.89       99.88       99.87       99.86       99.85       99.84    
        99.83       99.82       99.81       99.81       99.80       99.80       99.80       99.80       99.80       99.81    
        99.81       99.82       99.83       99.84       99.85       99.86       99.87       99.88       99.89       99.90    
        99.91       99.92       99.93       99.95       99.96       99.97       99.98       99.99       100.0       100.0    
        100.0       100.0       100.0       100.0       100.1       100.1       100.1       100.1       100.1       100.1    
        100.1       100.1       100.1       100.1       100.1       100.1       100.1       100.1       100.1       100.2    
        100.2       100.2       100.2       100.2       100.2       100.2       100.2       100.2       100.2       100.2    
        100.2       100.2       100.2       100.2       100.2       100.1       100.1       100.1       100.1       100.1    
        100.1       100.1       100.1       100.1       100.1       100.1       100.1       100.1       100.0       100.0    
        100.0    
  43    100.0       100.0       100.0      100.00       99.99       99.99       99.98       99.97       99.96       99.96    
        99.95       99.94       99.93       99.91       99.90       99.89       99.88       99.87       99.86       99.85    
        99.85       99.84       99.83       99.83       99.82       99.82       99.82       99.82       99.82       99.82    
        99.83       99.83       99.84       99.85       99.86       99.87       99.88       99.88       99.89       99.90    
        99.92       99.93       99.94       99.95       99.96       99.97       99.98       99.99      100.00       100.0    
        100.0       100.0       100.0       100.0       100.1       100.1       100.1       100.1       100.1       100.1    
        100.1       100.1       100.1       100.1       100.1       100.1       100.1       100.1       100.1       100.1    
        100.2       100.2       100.2       100.2       100.2       100.2       100.2       100.2       100.2       100.2    
        100.2       100.2       100.2       100.2       100.2       100.1       100.1       100.1       100.1       100.1    
        100.1       100.1       100.1       100.1       100.1       100.1       100.1       100.1       100.0       100.0    
        100.0    
  44    100.0       100.0       100.0       100.0      100.00       99.99       99.98       99.98       99.97       99.96    
        99.95       99.94       99.93       99.92       99.91       99.90       99.89       99.89       99.88       99.87    
        99.86       99.85       99.85       99.84       99.84       99.84       99.84       99.84       99.84       99.84    
        99.84       99.85       99.85       99.86       99.87       99.87       99.88       99.89       99.90       99.91    
        99.92       99.93       99.94       99.95       99.96       99.97       99.98       99.99      100.00       100.0    
        100.0       100.0       100.0       100.0       100.1       100.1       100.1       100.1       100.1       100.1    
        100.1       100.1       100.1       100.1       100.1       100.1       100.1       100.1       100.1       100.1    
        100.2       100.2       100.2       100.2       100.2       100.2       100.2       100.2       100.2       100.2    
        100.2       100.2       100.2       100.2       100.2       100.1       100.1       100.1       100.1       100.1    
        100.1       100.1       100.1       100.1       100.1       100.1       100.1       100.1       100.0       100.0    
        100.0    
  45    100.0       100.0       100.0       100.0      100.00       99.99       99.99       99.98       99.97       99.97    
        99.96       99.95       99.94       99.93       99.92       99.91       99.91       99.90       99.89       99.88    
        99.87       99.87       99.86       99.86       99.85       99.85       99.85       99.85       99.85       99.85    
        99.85       99.86       99.86       99.87       99.87       99.88       99.89       99.89       99.90       99.91    
        99.92       99.93       99.94       99.95       99.96       99.97       99.97       99.98       99.99       100.0    
        100.0       100.0       100.0       100.0       100.0       100.1       100.1       100.1       100.1       100.1    
        100.1       100.1       100.1       100.1       100.1       100.1       100.1       100.1       100.1       100.1    
        100.1       100.2       100.2       100.2       100.2       100.2       100.2       100.2       100.2       100.2    
        100.2       100.2       100.2       100.2       100.2       100.1       100.1       100.1       100.1       100.1    
        100.1       100.1       100.1       100.1       100.1       100.1       100.1       100.1       100.0       100.0    
        100.0    
  46    100.0       100.0       100.0       100.0       100.0      100.00       99.99       99.99       99.98       99.97    
        99.96       99.96       99.95       99.94       99.93       99.92       99.92       99.91       99.90       99.89    
        99.89       99.88       99.87       99.87       99.87       99.86       99.86       99.86       99.86       99.86    
        99.86       99.87       99.87       99.87       99.88       99.89       99.89       99.90       99.91       99.91    
        99.92       99.93       99.94       99.95       99.95       99.96       99.97       99.98       99.99      100.00    
        100.0       100.0       100.0       100.0       100.0       100.1       100.1       100.1       100.1       100.1    
        100.1       100.1       100.1       100.1       100.1       100.1       100.1       100.1       100.1       100.1    
        100.1       100.1       100.2       100.2       100.2       100.2       100.2       100.2       100.2       100.2    
        100.2       100.2       100.2       100.2       100.1       100.1       100.1       100.1       100.1       100.1    
        100.1       100.1       100.1       100.1       100.1       100.1       100.1       100.1       100.0       100.0    
        100.0    
  47    100.0       100.0       100.0       100.0       100.0      100.00       99.99       99.99       99.98       99.98    
        99.97       99.96       99.95       99.95       99.94       99.93       99.92       99.92       99.91       99.90    
        99.90       99.89       99.88       99.88       99.88       99.87       99.87       99.87       99.87       99.87    
        99.87       99.87       99.88       99.88       99.88       99.89       99.89       99.90       99.91       99.91    
        99.92       99.93       99.94       99.94       99.95       99.96       99.97       99.98       99.99       99.99    
        100.0       100.0       100.0       100.0       100.0       100.0       100.1       100.1       100.1       100.1    
        100.1       100.1       100.1       100.1       100.1       100.1       100.1       100.1       100.1       100.1    
        100.1       100.1       100.1       100.2       100.2       100.2       100.2       100.2       100.2       100.2    
        100.2       100.2       100.2       100.2       100.1       100.1       100.1       100.1       100.1       100.1    
        100.1       100.1       100.1       100.1       100.1       100.1       100.1       100.1       100.0       100.0    
        100.0    
  48    100.0       100.0       100.0       100.0       100.0       100.0      100.00       99.99       99.99       99.98    
        99.97       99.97       99.96       99.95       99.95       99.94       99.93       99.92       99.92       99.91    
        99.90       99.90       99.89       99.89       99.89       99.88       99.88       99.88       99.88       99.88    
        99.88       99.88       99.88       99.88       99.89       99.89       99.90       99.90       99.91       99.91    
        99.92       99.93       99.93       99.94       99.95       99.96       99.96       99.97       99.98       99.99    
       100.00       100.0       100.0       100.0       100.0       100.0       100.0       100.1       100.1       100.1    
        100.1       100.1       100.1       100.1       100.1       100.1       100.1       100.1       100.1       100.1    
        100.1       100.1       100.1       100.1       100.2       100.2       100.2       100.2       100.2       100.2    
        100.2       100.2       100.2       100.2       100.1       100.1       100.1       100.1       100.1       100.1    
        100.1       100.1       100.1       100.1       100.1       100.1       100.1       100.1       100.0       100.0    
        100.0    
  49    100.0       100.0       100.0       100.0       100.0       100.0       100.0      100.00       99.99       99.98    
        99.98       99.97       99.97       99.96       99.95       99.94       99.94       99.93       99.92       99.92    
        99.91       99.91       99.90       99.90       99.89       99.89       99.89       99.89       99.88       99.88    
        99.88       99.88       99.89       99.89       99.89       99.89       99.90       99.90       99.91       99.91    
        99.92       99.92       99.93       99.94       99.94       99.95       99.96       99.97       99.97       99.98    
        99.99       100.0       100.0       100.0       100.0       100.0       100.0       100.1       100.1       100.1    
        100.1       100.1       100.1       100.1       100.1       100.1       100.1       100.1       100.1       100.1    
        100.1       100.1       100.1       100.1       100.1       100.2       100.2       100.2       100.2       100.2    
        100.2       100.2       100.2       100.1       100.1       100.1       100.1       100.1       100.1       100.1    
        100.1       100.1       100.1       100.1       100.1       100.1       100.1       100.1       100.0       100.0    
        100.0    
  50    100.0       100.0       100.0       100.0       100.0       100.0       100.0      100.00       99.99       99.99    
        99.98       99.98       99.97       99.96       99.96       99.95       99.94       99.94       99.93       99.92    
        99.92       99.91       99.91       99.90       99.90       99.90       99.89       99.89       99.89       99.89    
        99.89       99.89       99.89       99.89       99.89       99.89       99.90       99.90       99.90       99.91    
        99.91       99.92       99.92       99.93       99.94       99.95       99.95       99.96       99.97       99.98    
        99.98       99.99       100.0       100.0       100.0       100.0       100.0       100.0       100.1       100.1    
        100.1       100.1       100.1       100.1       100.1       100.1       100.1       100.1       100.1       100.1    
        100.1       100.1       100.1       100.1       100.1       100.1       100.1       100.2       100.2       100.2    
        100.2       100.2       100.1       100.1       100.1       100.1       100.1       100.1       100.1       100.1    
        100.1       100.1       100.1       100.1       100.1       100.1       100.1       100.1       100.0       100.0    
        100.0    
  51    100.0       100.0       100.0       100.0       100.0       100.0       100.0       100.0      100.00       99.99    
        99.99       99.98       99.97       99.97       99.96       99.96       99.95       99.94       99.94       99.93    
        99.92       99.92       99.91       99.91       99.90       99.90       99.90       99.89       99.89       99.89    
        99.89       99.89       99.89       99.89       99.89       99.89       99.89       99.90       99.90       99.90    
        99.91       99.91       99.92       99.93       99.93       99.94       99.95       99.95       99.96       99.97    
        99.98       99.99       99.99       100.0       100.0       100.0       100.0       100.0       100.0       100.1    
        100.1       100.1       100.1       100.1       100.1       100.1       100.1       100.1       100.1       100.1    
        100.1       100.1       100.1       100.1       100.1       100.1       100.1       100.1       100.1       100.1    
        100.1       100.1       100.1       100.1       100.1       100.1       100.1       100.1       100.1       100.1    
        100.1       100.1       100.1       100.1       100.1       100.1       100.1       100.1       100.0       100.0    
        100.0    
  52    100.0       100.0       100.0       100.0       100.0       100.0       100.0       100.0      100.00       99.99    
        99.99       99.98       99.98       99.97       99.97       99.96       99.95       99.95       99.94       99.93    
        99.93       99.92       99.92       99.91       99.91       99.90       99.90       99.90       99.89       99.89    
        99.89       99.89       99.89       99.89       99.89       99.89       99.89       99.89       99.90       99.90    
        99.90       99.91       99.91       99.92       99.92       99.93       99.94       99.94       99.95       99.96    
        99.97       99.98       99.99       99.99       100.0       100.0       100.0       100.0       100.0       100.0    
        100.1       100.1       100.1       100.1       100.1       100.1       100.1       100.1       100.1       100.1    
        100.1       100.1       100.1       100.1       100.1       100.1       100.1       100.1       100.1       100.1    
        100.1       100.1       100.1       100.1       100.1       100.1       100.1       100.1       100.1       100.1    
        100.1       100.1       100.1       100.1       100.1       100.1       100.1       100.1       100.0       100.0    
        100.0    
  53    100.0       100.0       100.0       100.0       100.0       100.0       100.0       100.0       100.0      100.00    
        99.99       99.99       99.98       99.97       99.97       99.96       99.96       99.95       99.94       99.94    
        99.93       99.93       99.92       99.92       99.91       99.91       99.90       99.90       99.89       99.89    
        99.89       99.89       99.89       99.88       99.88       99.89       99.89       99.89       99.89       99.89    
        99.90       99.90       99.90       99.91       99.92       99.92       99.93       99.94       99.94       99.95    
        99.96       99.97       99.98       99.99       99.99       100.0       100.0       100.0       100.0       100.0    
        100.0       100.1       100.1       100.1       100.1       100.1       100.1       100.1       100.1       100.1    
        100.1       100.1       100.1       100.1       100.1       100.1       100.1       100.1       100.1       100.1    
        100.1       100.1       100.1       100.1       100.1       100.1       100.1       100.1       100.1       100.1    
        100.1       100.1       100.1       100.1       100.1       100.1       100.1       100.1       100.0       100.0    
        100.0    
  54    100.0       100.0       100.0       100.0       100.0       100.0       100.0       100.0       100.0      100.00    
        99.99       99.99       99.98       99.98       99.97       99.97       99.96       99.95       99.95       99.94    
        99.93       99.93       99.92       99.92       99.91       99.91       99.90       99.90       99.89       99.89    
        99.89       99.88       99.88       99.88       99.88       99.88       99.88       99.88       99.88       99.89    
        99.89       99.89       99.90       99.90       99.91       99.91       99.92       99.93       99.93       99.94    
        99.95       99.96       99.97       99.98       99.99       99.99       100.0       100.0       100.0       100.0    
        100.0       100.0       100.1       100.1       100.1       100.1       100.1       100.1       100.1       100.1    
        100.1       100.1       100.1       100.1       100.1       100.1       100.1       100.1       100.1       100.1    
        100.1       100.1       100.1       100.1       100.1       100.1       100.1       100.1       100.1       100.1    
        100.1       100.1       100.1       100.1       100.1       100.1       100.1       100.1       100.0       100.0    
        100.0    
  55    100.0       100.0       100.0       100.0       100.0       100.0       100.0       100.0       100.0      100.00    
       100.00       99.99       99.99       99.98       99.97       99.97       99.96       99.96       99.95       99.94    
        99.94       99.93       99.92       99.92       99.91       99.91       99.90       99.90       99.89       99.89    
        99.88       99.88       99.88       99.88       99.87       99.87       99.87       99.87       99.87       99.88    
        99.88       99.88       99.89       99.89       99.90       99.90       99.91       99.91       99.92       99.93    
        99.94       99.95       99.96       99.97       99.98       99.98       99.99       100.0       100.0       100.0    
        100.0       100.0       100.1       100.1       100.1       100.1       100.1       100.1       100.1       100.1    
        100.1       100.1       100.1       100.1       100.1       100.1       100.1       100.1       100.1       100.1    
        100.1       100.1       100.1       100.1       100.1       100.1       100.1       100.1       100.1       100.1    
        100.1       100.1       100.1       100.1       100.1       100.1       100.1       100.1       100.0       100.0    
        100.0    
  56    100.0       100.0       100.0       100.0       100.0       100.0       100.0       100.0       100.0       100.0    
       100.00       99.99       99.99       99.98       99.98       99.97       99.96       99.96       99.95       99.94    
        99.94       99.93       99.92       99.92       99.91       99.91       99.90       99.89       99.89       99.88    
        99.88       99.88       99.87       99.87       99.87       99.87       99.87       99.86       99.87       99.87    
        99.87       99.87       99.87       99.88       99.88       99.89       99.89       99.90       99.91       99.92    
        99.93       99.94       99.94       99.95       99.96       99.97       99.98       99.99       100.0       100.0    
[...]
        100.0       100.0       100.0       100.0       100.0       100.0       100.0       100.0       100.0       100.0    
        100.0    
  88    100.0      100.00      100.00       99.99       99.99       99.99       99.99       99.98       99.98       99.97    
        99.97       99.96       99.96       99.95       99.94       99.94       99.93       99.92       99.91       99.90    
        99.88       99.87       99.86       99.84       99.82       99.81       99.79       99.77       99.74       99.72    
        99.70       99.67       99.65       99.62       99.59       99.57       99.54       99.52       99.50       99.48    
        99.46       99.45       99.44       99.44       99.44       99.45       99.46       99.48       99.50       99.53    
        99.55       99.58       99.61       99.64       99.66       99.69       99.72       99.74       99.77       99.79    
        99.81       99.83       99.85       99.87       99.88       99.90       99.91       99.93       99.94       99.95    
        99.96       99.97       99.98       99.99      100.00       100.0       100.0       100.0       100.0       100.0    
        100.0       100.0       100.0       100.0       100.0       100.0       100.0       100.0       100.0       100.0    
        100.0       100.0       100.0       100.0       100.0       100.0       100.0       100.0       100.0       100.0    
        100.0    
  89    100.0      100.00      100.00       99.99       99.99       99.99       99.99       99.98       99.98       99.98    
        99.97       99.97       99.96       99.96       99.95       99.94       99.93       99.92       99.91       99.90    
        99.89       99.88       99.87       99.85       99.83       99.82       99.80       99.78       99.76       99.74    
        99.72       99.70       99.67       99.65       99.62       99.60       99.58       99.56       99.54       99.52    
        99.50       99.49       99.49       99.48       99.49       99.50       99.51       99.52       99.54       99.56    
        99.59       99.61       99.64       99.66       99.69       99.71       99.74       99.76       99.78       99.80    
        99.82       99.84       99.86       99.88       99.89       99.91       99.92       99.93       99.94       99.95    
        99.97       99.97       99.98       99.99      100.00       100.0       100.0       100.0       100.0       100.0    
        100.0       100.0       100.0       100.0       100.0       100.0       100.0       100.0       100.0       100.0    
        100.0       100.0       100.0       100.0       100.0       100.0       100.0       100.0       100.0       100.0    
        100.0    
  90    100.0      100.00      100.00      100.00       99.99       99.99       99.99       99.99       99.98       99.98    
        99.97       99.97       99.96       99.96       99.95       99.95       99.94       99.93       99.92       99.91    
        99.90       99.89       99.87       99.86       99.85       99.83       99.82       99.80       99.78       99.76    
        99.74       99.72       99.70       99.68       99.65       99.63       99.61       99.59       99.58       99.56    
        99.55       99.54       99.53       99.53       99.53       99.54       99.55       99.56       99.58       99.60    
        99.62       99.64       99.67       99.69       99.71       99.73       99.76       99.78       99.80       99.82    
        99.83       99.85       99.87       99.88       99.90       99.91       99.92       99.94       99.95       99.96    
        99.97       99.98       99.98       99.99      100.00       100.0       100.0       100.0       100.0       100.0    
        100.0       100.0       100.0       100.0       100.0       100.0       100.0       100.0       100.0       100.0    
        100.0       100.0       100.0       100.0       100.0       100.0       100.0       100.0       100.0       100.0    
        100.0    
  91    100.0      100.00      100.00      100.00       99.99       99.99       99.99       99.99       99.98       99.98    
        99.98       99.97       99.97       99.96       99.96       99.95       99.94       99.94       99.93       99.92    
        99.91       99.90       99.89       99.87       99.86       99.85       99.83       99.81       99.80       99.78    
        99.76       99.74       99.72       99.71       99.69       99.67       99.65       99.63       99.62       99.60    
        99.59       99.58       99.58       99.58       99.58       99.59       99.60       99.61       99.62       99.64    
        99.66       99.68       99.70       99.72       99.74       99.76       99.78       99.80       99.81       99.83    
        99.85       99.86       99.88       99.89       99.91       99.92       99.93       99.94       99.95       99.96    
        99.97       99.98       99.99       99.99      100.00       100.0       100.0       100.0       100.0       100.0    
        100.0       100.0       100.0       100.0       100.0       100.0       100.0       100.0       100.0       100.0    
        100.0       100.0       100.0       100.0       100.0       100.0       100.0       100.0       100.0       100.0    
        100.0    
  92    100.0      100.00      100.00      100.00       99.99       99.99       99.99       99.99       99.99       99.98    
        99.98       99.98       99.97       99.97       99.96       99.96       99.95       99.94       99.93       99.93    
        99.92       99.91       99.90       99.89       99.87       99.86       99.85       99.83       99.82       99.80    
        99.79       99.77       99.75       99.73       99.72       99.70       99.69       99.67       99.66       99.65    
        99.64       99.63       99.63       99.62       99.63       99.63       99.64       99.65       99.66       99.68    
        99.69       99.71       99.73       99.74       99.76       99.78       99.80       99.81       99.83       99.85    
        99.86       99.88       99.89       99.90       99.92       99.93       99.94       99.95       99.96       99.96    
        99.97       99.98       99.99       99.99      100.00       100.0       100.0       100.0       100.0       100.0    
        100.0       100.0       100.0       100.0       100.0       100.0       100.0       100.0       100.0       100.0    
        100.0       100.0       100.0       100.0       100.0       100.0       100.0       100.0       100.0       100.0    
        100.0    
  93    100.0      100.00      100.00      100.00      100.00       99.99       99.99       99.99       99.99       99.99    
        99.98       99.98       99.97       99.97       99.97       99.96       99.95       99.95       99.94       99.93    
        99.93       99.92       99.91       99.90       99.89       99.88       99.86       99.85       99.84       99.82    
        99.81       99.79       99.78       99.76       99.75       99.74       99.72       99.71       99.70       99.69    
        99.68       99.67       99.67       99.67       99.67       99.68       99.68       99.69       99.70       99.71    
        99.73       99.74       99.76       99.77       99.79       99.80       99.82       99.83       99.85       99.86    
        99.88       99.89       99.90       99.91       99.92       99.93       99.94       99.95       99.96       99.97    
        99.98       99.98       99.99       99.99      100.00       100.0       100.0       100.0       100.0       100.0    
        100.0       100.0       100.0       100.0       100.0       100.0       100.0       100.0       100.0       100.0    
        100.0       100.0       100.0       100.0       100.0       100.0       100.0       100.0       100.0       100.0    
        100.0    
  94    100.0      100.00      100.00      100.00      100.00       99.99       99.99       99.99       99.99       99.99    
        99.98       99.98       99.98       99.97       99.97       99.97       99.96       99.95       99.95       99.94    
        99.93       99.93       99.92       99.91       99.90       99.89       99.88       99.87       99.86       99.85    
        99.83       99.82       99.81       99.79       99.78       99.77       99.76       99.75       99.74       99.73    
        99.72       99.72       99.71       99.71       99.72       99.72       99.72       99.73       99.74       99.75    
        99.76       99.78       99.79       99.80       99.82       99.83       99.84       99.86       99.87       99.88    
        99.89       99.90       99.91       99.92       99.93       99.94       99.95       99.96       99.97       99.97    
        99.98       99.98       99.99       99.99      100.00       100.0       100.0       100.0       100.0       100.0    
        100.0       100.0       100.0       100.0       100.0       100.0       100.0       100.0       100.0       100.0    
        100.0       100.0       100.0       100.0       100.0       100.0       100.0       100.0       100.0       100.0    
        100.0    
  95    100.0      100.00      100.00      100.00      100.00      100.00       99.99       99.99       99.99       99.99    
        99.99       99.98       99.98       99.98       99.97       99.97       99.97       99.96       99.96       99.95    
        99.94       99.94       99.93       99.92       99.91       99.91       99.90       99.89       99.88       99.87    
        99.86       99.85       99.83       99.82       99.81       99.80       99.79       99.78       99.78       99.77    
        99.76       99.76       99.76       99.76       99.76       99.76       99.77       99.77       99.78       99.79    
        99.80       99.81       99.82       99.83       99.84       99.85       99.86       99.88       99.89       99.90    
        99.91       99.92       99.93       99.93       99.94       99.95       99.96       99.96       99.97       99.98    
        99.98       99.99       99.99      100.00      100.00       100.0       100.0       100.0       100.0       100.0    
        100.0       100.0       100.0       100.0       100.0       100.0       100.0       100.0       100.0       100.0    
        100.0       100.0       100.0       100.0       100.0       100.0       100.0       100.0       100.0       100.0    
        100.0    
  96    100.0      100.00      100.00      100.00      100.00      100.00      100.00       99.99       99.99       99.99    
        99.99       99.99       99.98       99.98       99.98       99.98       99.97       99.97       99.96       99.96    
        99.95       99.95       99.94       99.94       99.93       99.92       99.91       99.91       99.90       99.89    
        99.88       99.87       99.86       99.85       99.85       99.84       99.83       99.82       99.82       99.81    
        99.81       99.80       99.80       99.80       99.80       99.80       99.81       99.81       99.82       99.82    
        99.83       99.84       99.85       99.86       99.87       99.88       99.89       99.90       99.91       99.91    
        99.92       99.93       99.94       99.95       99.95       99.96       99.96       99.97       99.98       99.98    
        99.98       99.99       99.99      100.00      100.00       100.0       100.0       100.0       100.0       100.0    
        100.0       100.0       100.0       100.0       100.0       100.0       100.0       100.0       100.0       100.0    
        100.0       100.0       100.0       100.0       100.0       100.0       100.0       100.0       100.0       100.0    
        100.0    
  97    100.0      100.00      100.00      100.00      100.00      100.00      100.00      100.00       99.99       99.99    
        99.99       99.99       99.99       99.99       99.98       99.98       99.98       99.97       99.97       99.97    
        99.96       99.96       99.95       99.95       99.94       99.94       99.93       99.92       99.92       99.91    
        99.90       99.90       99.89       99.88       99.88       99.87       99.86       99.86       99.85       99.85    
        99.85       99.84       99.84       99.84       99.84       99.84       99.85       99.85       99.86       99.86    
        99.87       99.87       99.88       99.89       99.89       99.90       99.91       99.92       99.92       99.93    
        99.94       99.94       99.95       99.96       99.96       99.97       99.97       99.98       99.98       99.98    
        99.99       99.99       99.99      100.00      100.00       100.0       100.0       100.0       100.0       100.0    
        100.0       100.0       100.0       100.0       100.0       100.0       100.0       100.0       100.0       100.0    
        100.0       100.0       100.0       100.0       100.0       100.0       100.0       100.0       100.0       100.0    
        100.0    
  98    100.0      100.00      100.00      100.00      100.00      100.00      100.00      100.00      100.00       99.99    
        99.99       99.99       99.99       99.99       99.99       99.99       99.98       99.98       99.98       99.98    
        99.97       99.97       99.97       99.96       99.96       99.95       99.95       99.94       99.94       99.93    
        99.93       99.92       99.92       99.91       99.91       99.90       99.90       99.89       99.89       99.89    
        99.88       99.88       99.88       99.88       99.88       99.88       99.89       99.89       99.89       99.90    
        99.90       99.91       99.91       99.92       99.92       99.93       99.93       99.94       99.94       99.95    
        99.95       99.96       99.96       99.97       99.97       99.97       99.98       99.98       99.99       99.99    
        99.99       99.99      100.00      100.00       100.0       100.0       100.0       100.0       100.0       100.0    
        100.0       100.0       100.0       100.0       100.0       100.0       100.0       100.0       100.0       100.0    
        100.0       100.0       100.0       100.0       100.0       100.0       100.0       100.0       100.0       100.0    
        100.0    
  99    100.0      100.00      100.00      100.00      100.00      100.00      100.00      100.00      100.00      100.00    
       100.00       99.99       99.99       99.99       99.99       99.99       99.99       99.99       99.99       99.98    
        99.98       99.98       99.98       99.97       99.97       99.97       99.97       99.96       99.96       99.96    
        99.95       99.95       99.95       99.94       99.94       99.94       99.93       99.93       99.93       99.93    
        99.92       99.92       99.92       99.92       99.92       99.92       99.92       99.93       99.93       99.93    
        99.93       99.94       99.94       99.94       99.95       99.95       99.95       99.96       99.96       99.97    
        99.97       99.97       99.98       99.98       99.98       99.98       99.99       99.99       99.99       99.99    
        99.99      100.00      100.00      100.00       100.0       100.0       100.0       100.0       100.0       100.0    
        100.0       100.0       100.0       100.0       100.0       100.0       100.0       100.0       100.0       100.0    
        100.0       100.0       100.0       100.0       100.0       100.0       100.0       100.0       100.0       100.0    
        100.0    
 100    100.0      100.00      100.00      100.00      100.00      100.00      100.00      100.00      100.00      100.00    
       100.00      100.00      100.00      100.00      100.00      100.00       99.99       99.99       99.99       99.99    
        99.99       99.99       99.99       99.99       99.99       99.98       99.98       99.98       99.98       99.98    
        99.98       99.97       99.97       99.97       99.97       99.97       99.97       99.96       99.96       99.96    
        99.96       99.96       99.96       99.96       99.96       99.96       99.96       99.96       99.96       99.97    
        99.97       99.97       99.97       99.97       99.97       99.98       99.98       99.98       99.98       99.98    
        99.98       99.99       99.99       99.99       99.99       99.99       99.99       99.99      100.00      100.00    
       100.00      100.00      100.00      100.00       100.0       100.0       100.0       100.0       100.0       100.0    
        100.0       100.0       100.0       100.0       100.0       100.0       100.0       100.0       100.0       100.0    
        100.0       100.0       100.0       100.0       100.0       100.0       100.0       100.0       100.0       100.0    
        100.0    
 101    100.0       100.0       100.0       100.0       100.0       100.0       100.0       100.0       100.0       100.0    
        100.0       100.0       100.0       100.0       100.0       100.0       100.0       100.0       100.0       100.0    
        100.0       100.0       100.0       100.0       100.0       100.0       100.0       100.0       100.0       100.0    
        100.0       100.0       100.0       100.0       100.0       100.0       100.0       100.0       100.0       100.0    
        100.0       100.0       100.0       100.0       100.0       100.0       100.0       100.0       100.0       100.0    
        100.0       100.0       100.0       100.0       100.0       100.0       100.0       100.0       100.0       100.0    
        100.0       100.0       100.0       100.0       100.0       100.0       100.0       100.0       100.0       100.0    
        100.0       100.0       100.0       100.0       100.0       100.0       100.0       100.0       100.0       100.0    
        100.0       100.0       100.0       100.0       100.0       100.0       100.0       100.0       100.0       100.0    
        100.0       100.0       100.0       100.0       100.0       100.0       100.0       100.0       100.0       100.0    
        100.0    

 HEAD WILL BE SAVED ON UNIT 1014 AT END OF TIME STEP    1, STRESS PERIOD    1


  VOLUME BUDGET FOR ENTIRE MODEL AT END OF TIME STEP    1, STRESS PERIOD   1
  ---------------------------------------------------------------------------------------------------

     CUMULATIVE VOLUME      L**3       RATES FOR THIS TIME STEP      L**3/T          PACKAGE NAME    
     ------------------                 ------------------------                     ----------------

           IN:                                      IN:
           ---                                      ---
                 RCH =         313.6000                   RCH =         313.6000     RCHA            
                 CHD =          92.9859                   CHD =          92.9859     CHD_0           

            TOTAL IN =         406.5859              TOTAL IN =         406.5859

          OUT:                                     OUT:
          ----                                     ----
                 RCH =           0.0000                   RCH =           0.0000     RCHA            
                 CHD =         408.4346                   CHD =         408.4346     CHD_0           

           TOTAL OUT =         408.4346             TOTAL OUT =         408.4346

            IN - OUT =          -1.8487              IN - OUT =          -1.8487

 PERCENT DISCREPANCY =          -0.45     PERCENT DISCREPANCY =          -0.45




         TIME SUMMARY AT END OF TIME STEP    1 IN STRESS PERIOD    1
                    SECONDS     MINUTES      HOURS       DAYS        YEARS
                    -----------------------------------------------------------
   TIME STEP LENGTH  86400.      1440.0      24.000      1.0000     2.73785E-03
 STRESS PERIOD TIME  86400.      1440.0      24.000      1.0000     2.73785E-03
         TOTAL TIME  86400.      1440.0      24.000      1.0000     2.73785E-03


end timestep

